ASSIGN,OUTPUT='D:\Dokum\Projekty\Innogear\2015\Ansys\Test\test1_fluent.op2',UNIT=12
id,NASTRAN,D:\Dokum\Projekty\Innogear\2015\Ansys\Test\test1_fluent
SOL 101
TIME 10000
CEND
ECHO = NONE
SUBCASE = 1
LOAD = 1
BEGIN BULK
PARAM,POST,-1
PARAM,PATVER,3.0
PARAM,K6ROT,100.0
PARAM,MAXRATIO,1.E+8
PARAM,GRDPNT,0
PARAM,AUTOSPC,YES
$          Grid points
GRID*                  1               0-2.0000000298E-1 1.2124981731E-1
*        2.6571580767E-1               0
GRID*                  2               0-2.0000000298E-1 9.3952089548E-2
*        3.3631139993E-1               0
GRID*                  3               0-2.0000000298E-1 1.5331178903E-1
*        3.2111692428E-1               0
GRID*                  4               0-2.0000000298E-1 5.8461852371E-2
*        2.8139829635E-1               0
GRID*                  5               0-2.0000000298E-1 6.6340930759E-2
*        1.9771082699E-1               0
GRID*                  6               0-2.0000000298E-1 1.4820985496E-1
*        1.9757147133E-1               0
GRID*                  7               0-2.0000000298E-1 1.3022965192E-1
*        1.2062058597E-1               0
GRID*                  8               0-2.0000000298E-1 5.8943457901E-2
*        1.1635121703E-1               0
GRID*                  9               0-2.0000000298E-1 1.4788153767E-1
*        5.1801133900E-2               0
GRID*                 10               0-2.0000000298E-1 8.6924381554E-2
*        5.9363737702E-2               0
GRID*                 11               0 2.0000000298E-1 9.8642587661E-2
*        3.2235980033E-1               0
GRID*                 12               0 2.0000000298E-1 1.3947446644E-1
*        2.5833854079E-1               0
GRID*                 13               0 2.0000000298E-1 1.5772581100E-1
*        3.3121439814E-1               0
GRID*                 14               0 2.0000000298E-1 6.6923253238E-2
*        2.4027819931E-1               0
GRID*                 15               0 2.0000000298E-1 4.0583848953E-2
*        3.2479244470E-1               0
GRID*                 16               0 2.0000000298E-1 1.3038179278E-1
*        1.8552507460E-1               0
GRID*                 17               0 2.0000000298E-1 6.1979018151E-2
*        1.5445329248E-1               0
GRID*                 18               0 2.0000000298E-1 1.1864523589E-1
*        1.2103451043E-1               0
GRID*                 19               0-2.0000000298E-1 2.0000000298E-1
*        2.6762622594E-1               0
GRID*                 20               0 2.0000000298E-1 6.3954263925E-2
*        6.7206345498E-2               0
$ ... 864 like lines cut
$          Elements
CTETRA         1       3      37       6      29      52
CTETRA         2       3      37      52      38       6
CTETRA         3       3      39       9      71     100
CTETRA         4       3      19       6      37      38
CTETRA         5       3      82      39      71     100
CTETRA         6       3      71       9      62     100
CTETRA         7       3       6      19       1      38
CTETRA         8       3      85       8      78     314
CTETRA         9       3      78       5      99     320
CTETRA        10       3      24       3      19      38
CTETRA        11       3      79      63      90      95
CTETRA        12       3      99       5      70     329
CTETRA        13       3      38      35      24       3
CTETRA        14       3     120     103     118     330
CTETRA        15       3      69       2      44      89
CTETRA        16       3     107     101     111     321
CTETRA        17       3      48      21      34      58
CTETRA        18       3      51      30      49      73
CTETRA        19       3      93      17      94     313
CTETRA        20       3      12      25      16      40
$ ... 1922 like lines cut
$          Coordinate systems
$          Element properties
$HMNAME COMP                   3"solid"
PSOLID         3       3       0
$          Material properties
MAT1*                  3 1.00000000E+000                 0.00000000E+000
*        0.00000000E+000 0.00000000E+000 0.00000000E+000
$          Loads
ENDDATA
