*HEADING
ABAQUS input deck
**         Nodes
*NODE, NSET=NALL
1,-2.000000029E-01, 1.212498173E-01, 2.657158076E-01
2,-2.000000029E-01, 9.395208954E-02, 3.363113999E-01
3,-2.000000029E-01, 1.533117890E-01, 3.211169242E-01
4,-2.000000029E-01, 5.846185237E-02, 2.813982963E-01
5,-2.000000029E-01, 6.634093075E-02, 1.977108269E-01
6,-2.000000029E-01, 1.482098549E-01, 1.975714713E-01
7,-2.000000029E-01, 1.302296519E-01, 1.206205859E-01
8,-2.000000029E-01, 5.894345790E-02, 1.163512170E-01
9,-2.000000029E-01, 1.478815376E-01, 5.180113390E-02
10,-2.000000029E-01, 8.692438155E-02, 5.936373770E-02
11, 2.000000029E-01, 9.864258766E-02, 3.223598003E-01
12, 2.000000029E-01, 1.394744664E-01, 2.583385407E-01
13, 2.000000029E-01, 1.577258110E-01, 3.312143981E-01
14, 2.000000029E-01, 6.692325323E-02, 2.402781993E-01
15, 2.000000029E-01, 4.058384895E-02, 3.247924447E-01
16, 2.000000029E-01, 1.303817927E-01, 1.855250746E-01
17, 2.000000029E-01, 6.197901815E-02, 1.544532924E-01
18, 2.000000029E-01, 1.186452358E-01, 1.210345104E-01
19,-2.000000029E-01, 2.000000029E-01, 2.676262259E-01
20, 2.000000029E-01, 6.395426392E-02, 6.720634549E-02
** ... 432 like lines cut
**         Elements
*ELEMENT, TYPE=C3D4, ELSET=PID3
1, 37, 6, 29, 52
2, 37, 52, 38, 6
3, 39, 9, 71, 100
4, 19, 6, 37, 38
5, 82, 39, 71, 100
6, 71, 9, 62, 100
7, 6, 19, 1, 38
8, 85, 8, 78, 314
9, 78, 5, 99, 320
10, 24, 3, 19, 38
11, 79, 63, 90, 95
12, 99, 5, 70, 329
13, 38, 35, 24, 3
14, 120, 103, 118, 330
15, 69, 2, 44, 89
16, 107, 101, 111, 321
17, 48, 21, 34, 58
18, 51, 30, 49, 73
19, 93, 17, 94, 313
20, 12, 25, 16, 40
** ... 1922 like lines cut
**         All elements set
*ELSET, GENERATE, ELSET=EALL
1, 1942
**         Node sets
*NSET, NSET=wall-solid
1,2,3,4,5,6,7,8,
9,10,11,12,13,14,15,16,
17,18,19,20,21,22,23,24,
25,26,27,28,29,30,31,32,
33,34,35,36,37,38,39,40,
41,42,43,44,45,46,47,48,
49,50,51,52,53,54,55,56,
57,58,59,60,61,62,63,64,
65,66,67,68,69,70,71,72,
73,74,75,76,77,78,79,80,
81,82,83,84,85,86,87,88,
89,90,91,92,93,94,95,96,
97,98,99,100,101,102,103,104,
105,106,107,108,109,110,111,112,
113,114,115,116,117,118,119,120,
121,122,123,124,125,126,127,128,
129,130,131,132,133,134,135,136,
137,138,139,140,141,142,143,144,
145,146,147,148,149,150,151,152,
153,154,155,156,157,158,159,160,
** ... 8 like lines cut
**         Element sets
**         Element properties
*SOLID SECTION, ELSET=PID3, MATERIAL=MID3
**         Material properties
*MATERIAL, NAME=MID3
*ELASTIC, TYPE=ISOTROPIC
1., 0., 
**         Contact pairs and Co-simulation
**         Steps
*STEP
*STATIC
*BOUNDARY, OP=NEW
*END STEP
