*HEADING
ABAQUS input deck
**         Nodes
*NODE, NSET=NALL
1,-2.000000029E-001, 1.212498173E-001, 2.657158076E-001
2,-2.000000029E-001, 9.395208954E-002, 3.363113999E-001
3,-2.000000029E-001, 1.533117890E-001, 3.211169242E-001
4,-2.000000029E-001, 5.846185237E-002, 2.813982963E-001
**         Elements
*ELEMENT, TYPE=C3D4, ELSET=PID3
1, 1, 2, 3, 4
**All elements set
*ELSET, GENERATE, ELSET=EALL
1, 1942
**         Node sets
*NSET, NSET=wall-solid
1,2,3,4,5,6,7,8,
9,10,11,12,13,14,15,16,
17,18,19,20,21,22,23,24,
25,26,27,28,29,30,31,32,
33,34,35,36,37,38,39,40,
41,42,43,44,45,46,47,48,
49,50,51,52,53,54,55,56,
57,58,59,60,61,62,63,64,
65,66,67,68,69,70,71,72,
73,74,75,76,77,78,79,80,
81,82,83,84,85,86,87,88,
89,90,91,92,93,94,95,96,
97,98,99,100,101,102,103,104,
105,106,107,108,109,110,111,112,
113,114,115,116,117,118,119,120,
121,122,123,124,125,126,127,128,
129,130,131,132,133,134,135,136,
137,138,139,140,141,142,143,144,
145,146,147,148,149,150,151,152,
153,154,155,156,157,158,159,160,
** ... 8 like lines cut
**         Element sets
**         Element properties
*SOLID SECTION, ELSET=PID3, MATERIAL=MID3
**         Material properties
*MATERIAL, NAME=MID3
*ELASTIC, TYPE=ISOTROPIC
1., 0.,
**         Contact pairs and Co-simulation
**         Steps
*STEP
*STATIC
*BOUNDARY, OP=NEW
*END STEP
